/*--------------------------------*- C++ -*----------------------------------*\
| =========                 |                                                 |
| \\      /  F ield         | OpenFOAM: The Open Source CFD Toolbox           |
|  \\    /   O peration     | Version:  2.1.0                                 |
|   \\  /    A nd           | Web:      www.OpenFOAM.org                      |
|    \\/     M anipulation  |                                                 |
\*---------------------------------------------------------------------------*/
FoamFile
{
    version     2.0;
    format      ascii;
    class       featureEdgeMesh;
    location    "constant/triSurface";
    object      kobra.2eMesh;
}
// * * * * * * * * * * * * * * * * * * * * * * * * * * * * * * * * * * * * * //


// points:

3798
(
(9.37777074622150e-01 -3.60798246424927e-04 -5.98986826294113e-02)
(9.37972426927107e-01 -3.02325038158699e-04 -1.11209998254073e-01)
(8.54838758301289e-01 -6.76878684969177e-04 5.98959688645813e-02)
(8.08783758301289e-01 -6.76878684969177e-04 5.98959688645813e-02)
(8.08783758301289e-01 6.84745781585871e-04 5.98958794425431e-02)
(8.08783758301289e-01 -4.92888093626987e-02 1.03749753278125e-01)
(8.84502725564222e-01 -1.00298795314334e-04 5.98977925692943e-02)
(9.38296309482003e-01 -3.62629629597814e-11 5.98997924521108e-02)
(8.54838758301289e-01 7.33560902734414e-18 5.98997934135090e-02)
(8.84581509540708e-01 5.98959620331067e-02 1.91857125086673e-04)
(9.37777074626405e-01 5.98986826293509e-02 -3.60798246681495e-04)
(9.37972426929464e-01 -1.11209998253931e-01 3.02325037068512e-04)
(3.67625347872191e-01 -7.12165042367132e-10 -5.82098492008012e-02)
(3.82621795879202e-01 1.25350213061903e-11 -5.85361983487400e-02)
(8.54838758301289e-01 4.92888093626987e-02 -1.02608322085464e-01)
(8.54838758301289e-01 6.76878684969178e-04 -5.98959688645812e-02)
(8.84581509540754e-01 -5.98959620331083e-02 -1.91857125101860e-04)
(9.37777074626414e-01 -5.98986826293897e-02 3.60798246707225e-04)
(8.08783758301289e-01 -4.92888093626987e-02 1.02608322085464e-01)
(8.54838758301289e-01 -4.92888093626987e-02 1.02608322085464e-01)
(8.54838758301289e-01 4.92888093626987e-02 -1.03749753278125e-01)
(8.54838758301289e-01 -6.84745781585889e-04 -5.98958794425430e-02)
(8.08783758301289e-01 -6.84745781585889e-04 -5.98958794425430e-02)
(8.08783758301289e-01 4.92888093626987e-02 -1.03749753278125e-01)
(8.54838758301289e-01 6.84745781585871e-04 5.98958794425431e-02)
(9.37972426929463e-01 1.11209998253931e-01 -3.02325037068608e-04)
(9.37776979168518e-01 3.60523591540844e-04 5.98986240405893e-02)
(9.37972426945625e-01 3.02325029590667e-04 1.11209998254073e-01)
(8.08783758301289e-01 4.92888093626987e-02 -1.02608322085464e-01)
(8.08783758301289e-01 6.76878684969178e-04 -5.98959688645812e-02)
(8.54838758301289e-01 -4.92888093626987e-02 1.03749753278125e-01)
(9.67996258301289e-01 7.33560902734414e-18 5.98997934135090e-02)
(9.67996258301289e-01 0.00000000000000e+00 -5.98997934135088e-02)
(8.08783758301289e-01 7.33560902734414e-18 5.98997934135090e-02)
(3.82839389940355e-01 9.18485099360515e-19 -4.85386106123352e-02)
(3.67842941449629e-01 0.00000000000000e+00 -4.82122171917384e-02)
(9.37779227236860e-01 -3.60684724544455e-04 -6.04117954014961e-02)
(9.37781379802306e-01 -3.60559849731428e-04 -6.09249081711504e-02)
(9.37783532196871e-01 -3.60423678114373e-04 -6.14380209386480e-02)
(9.37785684298936e-01 -3.60276265821827e-04 -6.19511337042663e-02)
(9.37787835986887e-01 -3.60117668982339e-04 -6.24642464682864e-02)
(9.37789987139104e-01 -3.59947943724466e-04 -6.29773592309924e-02)
(9.37792137633973e-01 -3.59767146176774e-04 -6.34904719926721e-02)
(9.37794287349876e-01 -3.59575332467837e-04 -6.40035847536161e-02)
(9.37796436165196e-01 -3.59372558726236e-04 -6.45166975141183e-02)
(9.37798583958317e-01 -3.59158881080561e-04 -6.50298102744754e-02)
(9.37800730607621e-01 -3.58934355659407e-04 -6.55429230349871e-02)
(9.37802875991493e-01 -3.58699038591376e-04 -6.60560357959557e-02)
(9.37805019988316e-01 -3.58452986005073e-04 -6.65691485576862e-02)
(9.37807162476474e-01 -3.58196254029111e-04 -6.70822613204861e-02)
(9.37809303334349e-01 -3.57928898792106e-04 -6.75953740846655e-02)
(9.37811442440325e-01 -3.57650976422680e-04 -6.81084868505367e-02)
(9.37813579672787e-01 -3.57362543049457e-04 -6.86215996184141e-02)
(9.37815714910117e-01 -3.57063654801065e-04 -6.91347123886144e-02)
(9.37817848030699e-01 -3.56754367806134e-04 -6.96478251614562e-02)
(9.37819978912917e-01 -3.56434738193298e-04 -7.01609379372602e-02)
(9.37822107435155e-01 -3.56104822091193e-04 -7.06740507163486e-02)
(9.37824233475796e-01 -3.55764675628456e-04 -7.11871634990456e-02)
(9.37826356913225e-01 -3.55414354933728e-04 -7.17002762856768e-02)
(9.37828477625825e-01 -3.55053916135648e-04 -7.22133890765693e-02)
(9.37830595491980e-01 -3.54683415362858e-04 -7.27265018720517e-02)
(9.37832710390074e-01 -3.54302908744001e-04 -7.32396146724536e-02)
(9.37834822198491e-01 -3.53912452407719e-04 -7.37527274781063e-02)
(9.37836930795615e-01 -3.53512102482655e-04 -7.42658402893416e-02)
(9.37839036059831e-01 -3.53101915097454e-04 -7.47789531064925e-02)
(9.37841137869521e-01 -3.52681946380756e-04 -7.52920659298930e-02)
(9.37843236103071e-01 -3.52252252461206e-04 -7.58051787598776e-02)
(9.37845330638865e-01 -3.51812889467444e-04 -7.63182915967817e-02)
(9.37847421355286e-01 -3.51363913528112e-04 -7.68314044409410e-02)
(9.37849508130720e-01 -3.50905380771850e-04 -7.73445172926917e-02)
(9.37851590843550e-01 -3.50437347327296e-04 -7.78576301523705e-02)
(9.37853669372161e-01 -3.49959869323089e-04 -7.83707430203141e-02)
(9.37855743594937e-01 -3.49473002887864e-04 -7.88838558968596e-02)
(9.37857813390262e-01 -3.48976804150256e-04 -7.93969687823438e-02)
(9.37859878636522e-01 -3.48471329238899e-04 -7.99100816771036e-02)
(9.37861939212100e-01 -3.47956634282424e-04 -8.04231945814756e-02)
(9.37863994995381e-01 -3.47432775409460e-04 -8.09363074957964e-02)
(9.37866045864750e-01 -3.46899808748635e-04 -8.14494204204018e-02)
(9.37868091698591e-01 -3.46357790428575e-04 -8.19625333556273e-02)
(9.37870132375290e-01 -3.45806776577903e-04 -8.24756463018079e-02)
(9.37872167773230e-01 -3.45246823325242e-04 -8.29887592592775e-02)
(9.37874197770796e-01 -3.44677986799211e-04 -8.35018722283696e-02)
(9.37876222246374e-01 -3.44100323128428e-04 -8.40149852094167e-02)
(9.37878241078348e-01 -3.43513888441508e-04 -8.45280982027499e-02)
(9.37880254145103e-01 -3.42918738867064e-04 -8.50412112086997e-02)
(9.37882261325024e-01 -3.42314930533708e-04 -8.55543242275949e-02)
(9.37884262496495e-01 -3.41702519570049e-04 -8.60674372597633e-02)
(9.37886257537903e-01 -3.41081562104694e-04 -8.65805503055310e-02)
(9.37888246327631e-01 -3.40452114266247e-04 -8.70936633652228e-02)
(9.37890228744066e-01 -3.39814232183313e-04 -8.76067764391615e-02)
(9.37892204665591e-01 -3.39167971984492e-04 -8.81198895276685e-02)
(9.37894173970593e-01 -3.38513389798383e-04 -8.86330026310631e-02)
(9.37896136537456e-01 -3.37850541753584e-04 -8.91461157496626e-02)
(9.37898092244566e-01 -3.37179483978690e-04 -8.96592288837824e-02)
(9.37900040970309e-01 -3.36500272602294e-04 -9.01723420337357e-02)
(9.37901982593068e-01 -3.35812963752990e-04 -9.06854551998331e-02)
(9.37903916991230e-01 -3.35117613559367e-04 -9.11985683823833e-02)
(9.37905844043181e-01 -3.34414278150015e-04 -9.17116815816921e-02)
(9.37907763627305e-01 -3.33703013653522e-04 -9.22247947980629e-02)
(9.37909675621988e-01 -3.32983876198474e-04 -9.27379080317962e-02)
(9.37911579905616e-01 -3.32256921913456e-04 -9.32510212831900e-02)
(9.37913476356574e-01 -3.31522206927054e-04 -9.37641345525392e-02)
(9.37915364853248e-01 -3.30779787367850e-04 -9.42772478401355e-02)
(9.37917245274024e-01 -3.30029719364427e-04 -9.47903611462678e-02)
(9.37919117497287e-01 -3.29272059045368e-04 -9.53034744712216e-02)
(9.37920981401423e-01 -3.28506862539253e-04 -9.58165878152790e-02)
(9.37922836864819e-01 -3.27734185974664e-04 -9.63297011787188e-02)
(9.37924683765859e-01 -3.26954085480181e-04 -9.68428145618163e-02)
(9.37926521982930e-01 -3.26166617184386e-04 -9.73559279648428e-02)
(9.37928351394418e-01 -3.25371837215859e-04 -9.78690413880663e-02)
(9.37930171878709e-01 -3.24569801703181e-04 -9.83821548317506e-02)
(9.37931983314188e-01 -3.23760566774934e-04 -9.88952682961557e-02)
(9.37933785579243e-01 -3.22944188559698e-04 -9.94083817815375e-02)
(9.37935578552259e-01 -3.22120723186057e-04 -9.99214952881477e-02)
(9.37937362111622e-01 -3.21290226782594e-04 -1.00434608816234e-01)
(9.37939136135719e-01 -3.20452755477892e-04 -1.00947722366038e-01)
(9.37940900502936e-01 -3.19608365400537e-04 -1.01460835937801e-01)
(9.37942655091659e-01 -3.18757112679116e-04 -1.01973949531754e-01)
(9.37944399780276e-01 -3.17899053442216e-04 -1.02487063148128e-01)
(9.37946134447171e-01 -3.17034243818427e-04 -1.03000176787148e-01)
(9.37947858970733e-01 -3.16162739936340e-04 -1.03513290449031e-01)
(9.37949573229347e-01 -3.15284597924549e-04 -1.04026404133994e-01)
(9.37951277101400e-01 -3.14399873911649e-04 -1.04539517842246e-01)
(9.37952970465279e-01 -3.13508624026237e-04 -1.05052631573990e-01)
(9.37954653199371e-01 -3.12610904396914e-04 -1.05565745329425e-01)
(9.37956325182063e-01 -3.11706771152281e-04 -1.06078859108745e-01)
(9.37957986291741e-01 -3.10796280420945e-04 -1.06591972912139e-01)
(9.37959636406792e-01 -3.09879488331514e-04 -1.07105086739787e-01)
(9.37961275405604e-01 -3.08956451012599e-04 -1.07618200591867e-01)
(9.37962903166564e-01 -3.08027224592814e-04 -1.08131314468548e-01)
(9.37964519568058e-01 -3.07091865200777e-04 -1.08644428369997e-01)
(9.37966124488475e-01 -3.06150428965110e-04 -1.09157542296371e-01)
(9.37967717806200e-01 -3.05202972014438e-04 -1.09670656247822e-01)
(9.37969299399623e-01 -3.04249550477390e-04 -1.10183770224498e-01)
(9.37970869147129e-01 -3.03290220482598e-04 -1.10696884226537e-01)
(8.54378208301289e-01 -6.76878684969179e-04 5.98959688645812e-02)
(8.53917658301289e-01 -6.76878684969179e-04 5.98959688645812e-02)
(8.53457108301289e-01 -6.76878684969179e-04 5.98959688645812e-02)
(8.52996558301289e-01 -6.76878684969179e-04 5.98959688645812e-02)
(8.52536008301289e-01 -6.76878684969179e-04 5.98959688645812e-02)
(8.52075458301289e-01 -6.76878684969179e-04 5.98959688645812e-02)
(8.51614908301289e-01 -6.76878684969179e-04 5.98959688645812e-02)
(8.51154358301289e-01 -6.76878684969179e-04 5.98959688645812e-02)
(8.50693808301289e-01 -6.76878684969179e-04 5.98959688645812e-02)
(8.50233258301289e-01 -6.76878684969179e-04 5.98959688645812e-02)
(8.49772708301289e-01 -6.76878684969179e-04 5.98959688645812e-02)
(8.49312158301289e-01 -6.76878684969179e-04 5.98959688645812e-02)
(8.48851608301289e-01 -6.76878684969179e-04 5.98959688645812e-02)
(8.48391058301289e-01 -6.76878684969179e-04 5.98959688645812e-02)
(8.47930508301289e-01 -6.76878684969179e-04 5.98959688645812e-02)
(8.47469958301289e-01 -6.76878684969179e-04 5.98959688645812e-02)
(8.47009408301289e-01 -6.76878684969179e-04 5.98959688645812e-02)
(8.46548858301289e-01 -6.76878684969179e-04 5.98959688645812e-02)
(8.46088308301289e-01 -6.76878684969179e-04 5.98959688645812e-02)
(8.45627758301289e-01 -6.76878684969179e-04 5.98959688645812e-02)
(8.45167208301289e-01 -6.76878684969179e-04 5.98959688645812e-02)
(8.44706658301289e-01 -6.76878684969179e-04 5.98959688645812e-02)
(8.44246108301289e-01 -6.76878684969179e-04 5.98959688645812e-02)
(8.43785558301289e-01 -6.76878684969179e-04 5.98959688645812e-02)
(8.43325008301289e-01 -6.76878684969179e-04 5.98959688645812e-02)
(8.42864458301289e-01 -6.76878684969179e-04 5.98959688645812e-02)
(8.42403908301289e-01 -6.76878684969179e-04 5.98959688645812e-02)
(8.41943358301289e-01 -6.76878684969179e-04 5.98959688645812e-02)
(8.41482808301289e-01 -6.76878684969179e-04 5.98959688645812e-02)
(8.41022258301289e-01 -6.76878684969179e-04 5.98959688645812e-02)
(8.40561708301289e-01 -6.76878684969179e-04 5.98959688645812e-02)
(8.40101158301289e-01 -6.76878684969179e-04 5.98959688645812e-02)
(8.39640608301289e-01 -6.76878684969179e-04 5.98959688645812e-02)
(8.39180058301289e-01 -6.76878684969179e-04 5.98959688645812e-02)
(8.38719508301289e-01 -6.76878684969179e-04 5.98959688645812e-02)
(8.38258958301289e-01 -6.76878684969179e-04 5.98959688645812e-02)
(8.37798408301289e-01 -6.76878684969179e-04 5.98959688645812e-02)
(8.37337858301289e-01 -6.76878684969179e-04 5.98959688645812e-02)
(8.36877308301289e-01 -6.76878684969179e-04 5.98959688645812e-02)
(8.36416758301289e-01 -6.76878684969179e-04 5.98959688645812e-02)
(8.35956208301289e-01 -6.76878684969179e-04 5.98959688645812e-02)
(8.35495658301289e-01 -6.76878684969179e-04 5.98959688645812e-02)
(8.35035108301289e-01 -6.76878684969179e-04 5.98959688645812e-02)
(8.34574558301289e-01 -6.76878684969179e-04 5.98959688645812e-02)
(8.34114008301289e-01 -6.76878684969179e-04 5.98959688645812e-02)
(8.33653458301289e-01 -6.76878684969179e-04 5.98959688645812e-02)
(8.33192908301289e-01 -6.76878684969179e-04 5.98959688645812e-02)
(8.32732358301289e-01 -6.76878684969179e-04 5.98959688645812e-02)
(8.32271808301289e-01 -6.76878684969179e-04 5.98959688645812e-02)
(8.31811258301289e-01 -6.76878684969179e-04 5.98959688645812e-02)
(8.31350708301289e-01 -6.76878684969179e-04 5.98959688645812e-02)
(8.30890158301289e-01 -6.76878684969179e-04 5.98959688645812e-02)
(8.30429608301289e-01 -6.76878684969179e-04 5.98959688645812e-02)
(8.29969058301289e-01 -6.76878684969179e-04 5.98959688645812e-02)
(8.29508508301289e-01 -6.76878684969179e-04 5.98959688645812e-02)
(8.29047958301289e-01 -6.76878684969179e-04 5.98959688645812e-02)
(8.28587408301289e-01 -6.76878684969179e-04 5.98959688645812e-02)
(8.28126858301289e-01 -6.76878684969179e-04 5.98959688645812e-02)
(8.27666308301289e-01 -6.76878684969179e-04 5.98959688645812e-02)
(8.27205758301289e-01 -6.76878684969179e-04 5.98959688645812e-02)
(8.26745208301289e-01 -6.76878684969179e-04 5.98959688645812e-02)
(8.26284658301289e-01 -6.76878684969179e-04 5.98959688645812e-02)
(8.25824108301289e-01 -6.76878684969179e-04 5.98959688645812e-02)
(8.25363558301289e-01 -6.76878684969179e-04 5.98959688645812e-02)
(8.24903008301289e-01 -6.76878684969179e-04 5.98959688645812e-02)
(8.24442458301289e-01 -6.76878684969179e-04 5.98959688645812e-02)
(8.23981908301289e-01 -6.76878684969179e-04 5.98959688645812e-02)
(8.23521358301289e-01 -6.76878684969179e-04 5.98959688645812e-02)
(8.23060808301289e-01 -6.76878684969179e-04 5.98959688645812e-02)
(8.22600258301289e-01 -6.76878684969179e-04 5.98959688645812e-02)
(8.22139708301289e-01 -6.76878684969179e-04 5.98959688645812e-02)
(8.21679158301289e-01 -6.76878684969179e-04 5.98959688645812e-02)
(8.21218608301289e-01 -6.76878684969179e-04 5.98959688645812e-02)
(8.20758058301289e-01 -6.76878684969179e-04 5.98959688645812e-02)
(8.20297508301289e-01 -6.76878684969179e-04 5.98959688645812e-02)
(8.19836958301289e-01 -6.76878684969179e-04 5.98959688645812e-02)
(8.19376408301289e-01 -6.76878684969179e-04 5.98959688645812e-02)
(8.18915858301289e-01 -6.76878684969179e-04 5.98959688645812e-02)
(8.18455308301289e-01 -6.76878684969179e-04 5.98959688645812e-02)
(8.17994758301289e-01 -6.76878684969179e-04 5.98959688645812e-02)
(8.17534208301289e-01 -6.76878684969179e-04 5.98959688645812e-02)
(8.17073658301289e-01 -6.76878684969179e-04 5.98959688645812e-02)
(8.16613108301289e-01 -6.76878684969179e-04 5.98959688645812e-02)
(8.16152558301289e-01 -6.76878684969179e-04 5.98959688645812e-02)
(8.15692008301289e-01 -6.76878684969179e-04 5.98959688645812e-02)
(8.15231458301289e-01 -6.76878684969179e-04 5.98959688645812e-02)
(8.14770908301289e-01 -6.76878684969179e-04 5.98959688645812e-02)
(8.14310358301289e-01 -6.76878684969179e-04 5.98959688645812e-02)
(8.13849808301289e-01 -6.76878684969179e-04 5.98959688645812e-02)
(8.13389258301289e-01 -6.76878684969179e-04 5.98959688645812e-02)
(8.12928708301289e-01 -6.76878684969179e-04 5.98959688645812e-02)
(8.12468158301289e-01 -6.76878684969179e-04 5.98959688645812e-02)
(8.12007608301289e-01 -6.76878684969179e-04 5.98959688645812e-02)
(8.11547058301289e-01 -6.76878684969179e-04 5.98959688645812e-02)
(8.11086508301289e-01 -6.76878684969179e-04 5.98959688645812e-02)
(8.10625958301289e-01 -6.76878684969179e-04 5.98959688645812e-02)
(8.10165408301289e-01 -6.76878684969179e-04 5.98959688645812e-02)
(8.09704858301289e-01 -6.76878684969179e-04 5.98959688645812e-02)
(8.09244308301289e-01 -6.76878684969179e-04 5.98959688645812e-02)
(8.08783758301289e-01 5.41250642433572e-04 6.05962252581180e-02)
(8.08783758301289e-01 3.88593775739417e-04 6.12946312986164e-02)
(8.08783758301289e-01 2.26801377269062e-04 6.19909777182603e-02)
(8.08783758301289e-01 5.59012104362974e-05 6.26851450247002e-02)
(8.08783758301289e-01 -1.24077398461160e-04 6.33770140995207e-02)
(8.08783758301289e-01 -3.13103565273989e-04 6.40664662186803e-02)
(8.08783758301289e-01 -5.11144853300990e-04 6.47533830728848e-02)
(8.08783758301289e-01 -7.18167278855174e-04 6.54376467878889e-02)
(8.08783758301289e-01 -9.34135317095332e-04 6.61191399447234e-02)
(8.08783758301289e-01 -1.15901190812208e-03 6.67977455998441e-02)
(8.08783758301289e-01 -1.39275846333726e-03 6.74733473051992e-02)
(8.08783758301289e-01 -1.63533487206574e-03 6.81458291282115e-02)
(8.08783758301289e-01 -1.88669950843836e-03 6.88150756716728e-02)
(8.08783758301289e-01 -2.14680923853488e-03 6.94809720935454e-02)
(8.08783758301289e-01 -2.41561942778572e-03 7.01434041266692e-02)
(8.08783758301289e-01 -2.69308394863120e-03 7.08022580983697e-02)
(8.08783758301289e-01 -2.97915518843702e-03 7.14574209499643e-02)
(8.08783758301289e-01 -3.27378405766449e-03 7.21087802561628e-02)
(8.08783758301289e-01 -3.57691999829428e-03 7.27562242443595e-02)
(8.08783758301289e-01 -3.88851099250209e-03 7.33996418138136e-02)
(8.08783758301289e-01 -4.20850357158492e-03 7.40389225547134e-02)
(8.08783758301289e-01 -4.53684282513618e-03 7.46739567671233e-02)
(8.08783758301289e-01 -4.87347241046830e-03 7.53046354798073e-02)
(8.08783758301289e-01 -5.21833456228105e-03 7.59308504689290e-02)
(8.08783758301289e-01 -5.57137010257405e-03 7.65524942766224e-02)
(8.08783758301289e-01 -5.93251845080161e-03 7.71694602294319e-02)
(8.08783758301289e-01 -6.30171763426832e-03 7.77816424566168e-02)
(8.08783758301289e-01 -6.67890429876349e-03 7.83889359083192e-02)
(8.08783758301289e-01 -7.06401371943265e-03 7.89912363735901e-02)
(8.08783758301289e-01 -7.45697981188436e-03 7.95884404982718e-02)
(8.08783758301289e-01 -7.85773514353009e-03 8.01804458027337e-02)
(8.08783758301289e-01 -8.26621094515568e-03 8.07671506994577e-02)
(8.08783758301289e-01 -8.68233712272204e-03 8.13484545104702e-02)
(8.08783758301289e-01 -9.10604226939323e-03 8.19242574846184e-02)
(8.08783758301289e-01 -9.53725367778977e-03 8.24944608146878e-02)
(8.08783758301289e-01 -9.97589735246519e-03 8.30589666543572e-02)
(8.08783758301289e-01 -1.04218980226035e-02 8.36176781349890e-02)
(8.08783758301289e-01 -1.08751791549359e-02 8.41704993822517e-02)
(8.08783758301289e-01 -1.13356629668731e-02 8.47173355325723e-02)
(8.08783758301289e-01 -1.18032704398535e-02 8.52580927494140e-02)
(8.08783758301289e-01 -1.22779213329025e-02 8.57926782393793e-02)
(8.08783758301289e-01 -1.27595341964013e-02 8.63210002681326e-02)
(8.08783758301289e-01 -1.32480263860643e-02 8.68429681761422e-02)
(8.08783758301289e-01 -1.37433140771201e-02 8.73584923942370e-02)
(8.08783758301289e-01 -1.42453122786962e-02 8.78674844589766e-02)
(8.08783758301289e-01 -1.47539348484033e-02 8.83698570278317e-02)
(8.08783758301289e-01 -1.52690945071171e-02 8.88655238941720e-02)
(8.08783758301289e-01 -1.57907028539551e-02 8.93544000020587e-02)
(8.08783758301289e-01 -1.63186703814467e-02 8.98364014608407e-02)
(8.08783758301289e-01 -1.68529064908922e-02 9.03114455595496e-02)
(8.08783758301289e-01 -1.73933195079094e-02 9.07794507810931e-02)
(8.08783758301289e-01 -1.79398166981650e-02 9.12403368162432e-02)
(8.08783758301289e-01 -1.84923042832876e-02 9.16940245774171e-02)
(8.08783758301289e-01 -1.90506874569600e-02 9.21404362122487e-02)
(8.08783758301289e-01 -1.96148704011882e-02 9.25794951169479e-02)
(8.08783758301289e-01 -2.01847563027429e-02 9.30111259494457e-02)
(8.08783758301289e-01 -2.07602473697735e-02 9.34352546423228e-02)
(8.08783758301289e-01 -2.13412448485881e-02 9.38518084155197e-02)
(8.08783758301289e-01 -2.19276490406006e-02 9.42607157888254e-02)
(8.08783758301289e-01 -2.25193593194379e-02 9.46619065941436e-02)
(8.08783758301289e-01 -2.31162741482079e-02 9.50553119875333e-02)
(8.08783758301289e-01 -2.37182910969229e-02 9.54408644610223e-02)
(8.08783758301289e-01 -2.43253068600765e-02 9.58184978541918e-02)
(8.08783758301289e-01 -2.49372172743706e-02 9.61881473655292e-02)
(8.08783758301289e-01 -2.55539173365903e-02 9.65497495635478e-02)
(8.08783758301289e-01 -2.61753012216213e-02 9.69032423976722e-02)
(8.08783758301289e-01 -2.68012623006106e-02 9.72485652088854e-02)
(8.08783758301289e-01 -2.74316931592628e-02 9.75856587401385e-02)
(8.08783758301289e-01 -2.80664856162730e-02 9.79144651465184e-02)
(8.08783758301289e-01 -2.87055307418904e-02 9.82349280051748e-02)
(8.08783758301289e-01 -2.93487188766105e-02 9.85469923250015e-02)
(8.08783758301289e-01 -2.99959396499925e-02 9.88506045560733e-02)
(8.08783758301289e-01 -3.06470819995990e-02 9.91457125988349e-02)
(8.08783758301289e-01 -3.13020341900538e-02 9.94322658130413e-02)
(8.08783758301289e-01 -3.19606838322161e-02 9.97102150264475e-02)
(8.08783758301289e-01 -3.26229179024658e-02 9.99795125432464e-02)
(8.08783758301289e-01 -3.32886227620988e-02 1.00240112152253e-01)
(8.08783758301289e-01 -3.39576841768268e-02 1.00491969134836e-01)
(8.08783758301289e-01 -3.46299873363801e-02 1.00735040272589e-01)
(8.08783758301289e-01 -3.53054168742089e-02 1.00969283854746e-01)
(8.08783758301289e-01 -3.59838568872798e-02 1.01194659685345e-01)
(8.08783758301289e-01 -3.66651909559650e-02 1.01411129090117e-01)
(8.08783758301289e-01 -3.73493021640197e-02 1.01618654923129e-01)
(8.08783758301289e-01 -3.80360731186448e-02 1.01817201573157e-01)
(8.08783758301289e-01 -3.87253859706310e-02 1.02006734969792e-01)
(8.08783758301289e-01 -3.94171224345823e-02 1.02187222589295e-01)
(8.08783758301289e-01 -4.01111638092133e-02 1.02358633460169e-01)
(8.08783758301289e-01 -4.08073909977181e-02 1.02520938168481e-01)
(8.08783758301289e-01 -4.15056845282073e-02 1.02674108862906e-01)
(8.08783758301289e-01 -4.22059245742095e-02 1.02818119259504e-01)
(8.08783758301289e-01 -4.29079909752329e-02 1.02952944646237e-01)
(8.08783758301289e-01 -4.36117632573851e-02 1.03078561887203e-01)
(8.08783758301289e-01 -4.43171206540464e-02 1.03194949426608e-01)
(8.08783758301289e-01 -4.50239421265928e-02 1.03302087292468e-01)
(8.08783758301289e-01 -4.57321063851664e-02 1.03399957100031e-01)
(8.08783758301289e-01 -4.64414919094886e-02 1.03488542054937e-01)
(8.08783758301289e-01 -4.71519769697129e-02 1.03567826956096e-01)
(8.08783758301289e-01 -4.78634396473133e-02 1.03637798198298e-01)
(8.08783758301289e-01 -4.85757578560058e-02 1.03698443774547e-01)
(9.37889536294680e-01 -3.19912629612569e-04 5.98989391087778e-02)
(9.37372183957966e-01 -4.79649188375206e-04 5.98978729875310e-02)
(9.36843642198230e-01 -5.98390616847491e-04 5.98968044188839e-02)
(9.36310794468920e-01 -6.96213367919409e-04 5.98957472436961e-02)
(9.35775596182463e-01 -7.80305843137408e-04 5.98947107335594e-02)
(9.35238967172528e-01 -8.54758600468503e-04 5.98936944821939e-02)
(9.34701380251752e-01 -9.21963511428584e-04 5.98926976703760e-02)
(9.34163092733927e-01 -9.83314150017802e-04 5.98917218284999e-02)
(9.33624271080608e-01 -1.03978823568518e-03 5.98907679864864e-02)
(9.33085031299503e-01 -1.09212415712771e-03 5.98898365081348e-02)
(9.32545456764974e-01 -1.14089153204129e-03 5.98889273532512e-02)
(9.32005609241596e-01 -1.18654060823204e-03 5.98880403139890e-02)
(9.31465535584413e-01 -1.22943373310755e-03 5.98871751184922e-02)
(9.30925270149256e-01 -1.26984122158811e-03 5.98863319462836e-02)
(9.30384838706673e-01 -1.30796564177656e-03 5.98855113928596e-02)
(9.29844262678485e-01 -1.34398326157432e-03 5.98847138585738e-02)
(9.29303560052907e-01 -1.37804887608191e-03 5.98839395908208e-02)
(9.28762746054189e-01 -1.41029928901457e-03 5.98831887412278e-02)
(9.28221833659388e-01 -1.44085610208235e-03 5.98824613803777e-02)
(9.27680834002219e-01 -1.46982797419058e-03 5.98817573775218e-02)
(9.27139756691433e-01 -1.49731246618182e-03 5.98810765185940e-02)
(9.26598610064670e-01 -1.52339756136249e-03 5.98804185851696e-02)
(9.26057401392762e-01 -1.54816292904420e-03 5.98797833568167e-02)
(9.25516137045443e-01 -1.57168098190368e-03 5.98791706126484e-02)
(9.24974822626873e-01 -1.59401776678785e-03 5.98785801296302e-02)
(9.24433462734076e-01 -1.61522459281035e-03 5.98780118278554e-02)
(9.23892060579297e-01 -1.63532435783124e-03 5.98774662514470e-02)
(9.23350619540825e-01 -1.65434870609426e-03 5.98769436334883e-02)
(9.22809142783127e-01 -1.67232852092798e-03 5.98764441379767e-02)
(9.22267633246374e-01 -1.68929325002918e-03 5.98759678846217e-02)
(9.21726093664938e-01 -1.70527099668226e-03 5.98755149759794e-02)
(9.21184526584135e-01 -1.72028860271728e-03 5.98750854588701e-02)
(9.20642934375378e-01 -1.73437172429798e-03 5.98746792526377e-02)
(9.20101319249881e-01 -1.74754490533928e-03 5.98742962551216e-02)
(9.19559683271114e-01 -1.75983164381562e-03 5.98739363638763e-02)
(9.19018028366141e-01 -1.77125445273297e-03 5.98735994763136e-02)
(9.18476356335935e-01 -1.78183491662735e-03 5.98732854898290e-02)
(9.17934668866207e-01 -1.79159382485837e-03 5.98729942674177e-02)
(9.17392967516482e-01 -1.80055001304506e-03 5.98727255974361e-02)
(9.16851253596392e-01 -1.80871130811578e-03 5.98724795983806e-02)
(9.16309528343511e-01 -1.81608285729289e-03 5.98722564358504e-02)
(9.15767792972256e-01 -1.82266975856847e-03 5.98720562487663e-02)
(9.15226048674326e-01 -1.82847706154191e-03 5.98718791601273e-02)
(9.14684296619141e-01 -1.83350976816376e-03 5.98717252855798e-02)
(9.14142537954258e-01 -1.83777283092259e-03 5.98715946544806e-02)
(9.13600773805792e-01 -1.84127115385139e-03 5.98714872255276e-02)
(9.13059005278819e-01 -1.84400959510884e-03 5.98714029553352e-02)
(9.12517233457774e-01 -1.84599296756938e-03 5.98713418005733e-02)
(9.11975459406843e-01 -1.84722603934301e-03 5.98713037179704e-02)
(9.11433684170339e-01 -1.84771352159575e-03 5.98712886636918e-02)
(9.10891908774666e-01 -1.84745798673449e-03 5.98712965948937e-02)
(9.10350134243652e-01 -1.84645750852181e-03 5.98713275063165e-02)
(9.09808361613357e-01 -1.84470878087329e-03 5.98713814259085e-02)
(9.09266591938138e-01 -1.84220750580161e-03 5.98714584114722e-02)
(9.08724826296425e-01 -1.83894836742014e-03 5.98715585512142e-02)
(9.08183065796737e-01 -1.83492500760004e-03 5.98716819642246e-02)
(9.07641311562387e-01 -1.83013237601305e-03 5.98718286913941e-02)
(9.07099564727640e-01 -1.82456651440393e-03 5.98719986191225e-02)
(9.06557826454975e-01 -1.81822248741541e-03 5.98721916366152e-02)
(9.06016097928785e-01 -1.81109531350079e-03 5.98724076311458e-02)
(9.05474380355801e-01 -1.80317996439506e-03 5.98726464880241e-02)
(9.04932674965518e-01 -1.79447136457959e-03 5.98729080905638e-02)
(9.04390983013061e-01 -1.78496425743485e-03 5.98731922781708e-02)
(9.03849305990053e-01 -1.77464232519878e-03 5.98734991074078e-02)
(9.03307645600014e-01 -1.76348240001389e-03 5.98738288353316e-02)
(9.02766003609631e-01 -1.75146335270209e-03 5.98741816079226e-02)
(9.02224381907642e-01 -1.73856315938142e-03 5.98745575487171e-02)
(9.01682782514679e-01 -1.72475884827793e-03 5.98749567685082e-02)
(9.01141207594043e-01 -1.71002644241715e-03 5.98753793736966e-02)
(9.00599659463521e-01 -1.69434089583220e-03 5.98758253774134e-02)
(9.00058140608409e-01 -1.67767602633116e-03 5.98762946984436e-02)
(8.99516653695870e-01 -1.66000444420559e-03 5.98767872411457e-02)
(8.98975201590761e-01 -1.64129747348418e-03 5.98773028978309e-02)
(8.98433787373109e-01 -1.62152506643104e-03 5.98778415477252e-02)
(8.97892414357458e-01 -1.60065571055531e-03 5.98784030496941e-02)
(8.97351086063926e-01 -1.57865754607550e-03 5.98789870597277e-02)
(8.96809806599564e-01 -1.55548979765317e-03 5.98795933664541e-02)
(8.96268581316060e-01 -1.53108991990639e-03 5.98802222052505e-02)
(8.95727416327984e-01 -1.50538832074727e-03 5.98808738208648e-02)
(8.95186318593783e-01 -1.47830863090794e-03 5.98815484275835e-02)
(8.94645296066621e-01 -1.44976674611812e-03 5.98822462319011e-02)
(8.94104357879289e-01 -1.41966968813584e-03 5.98829674084370e-02)
(8.93563514572446e-01 -1.38791424230309e-03 5.98837119456745e-02)
(8.93022778379520e-01 -1.35438531156710e-03 5.98844797232626e-02)
(8.92482163584970e-01 -1.31895391557586e-03 5.98852705619031e-02)
(8.91941686979233e-01 -1.28147473700403e-03 5.98860842094832e-02)
(8.91401368443240e-01 -1.24178308258583e-03 5.98869203232191e-02)
(8.90861231733496e-01 -1.19969076105858e-03 5.98877783275025e-02)
(8.90321311882160e-01 -1.15490493342880e-03 5.98886587346497e-02)
(8.89781655127443e-01 -1.10705544068322e-03 5.98895623411947e-02)
(8.89242317279907e-01 -1.05573907710467e-03 5.98904889517983e-02)
(8.88703371954845e-01 -1.00045614855915e-03 5.98914379637144e-02)
(8.88164918700067e-01 -9.40574936433252e-04 5.98924082803051e-02)
(8.87627096251433e-01 -8.75277326351379e-04 5.98933981383811e-02)
(8.87090140600276e-01 -8.03215036451489e-04 5.98944078911682e-02)
(8.86554488148503e-01 -7.22055393085904e-04 5.98954412891278e-02)
(8.86020828551015e-01 -6.28730152747960e-04 5.98964936311938e-02)
(8.85490623767822e-01 -5.17568013916122e-04 5.98975573271412e-02)
(8.84970263302705e-01 -3.68068069840691e-04 5.98984857981034e-02)
(8.54838758301289e-01 -6.70110181938352e-04 5.98960449723111e-02)
(8.54838758301289e-01 -6.63341670350230e-04 5.98961203151709e-02)
(8.54838758301289e-01 -6.56573150291262e-04 5.98961948931597e-02)
(8.54838758301289e-01 -6.49804621847882e-04 5.98962687062765e-02)
(8.54838758301289e-01 -6.43036085106523e-04 5.98963417545204e-02)
(8.54838758301289e-01 -6.36267540153620e-04 5.98964140378904e-02)
(8.54838758301289e-01 -6.29498987075606e-04 5.98964855563857e-02)
(8.54838758301289e-01 -6.22730425958916e-04 5.98965563100053e-02)