/*--------------------------------*- C++ -*----------------------------------*\
| =========                 |                                                 |
| \\      /  F ield         | OpenFOAM: The Open Source CFD Toolbox           |
|  \\    /   O peration     | Version:  4.1                                   |
|   \\  /    A nd           | Web:      www.OpenFOAM.org                      |
|    \\/     M anipulation  |                                                 |
\*---------------------------------------------------------------------------*/
FoamFile
{
    version     2.0;
    format      ascii;
    class       extendedFeatureEdgeMesh;
    location    "constant/extendedFeatureEdgeMesh";
    object      nozzle.extendedFeatureEdgeMesh;
}
// * * * * * * * * * * * * * * * * * * * * * * * * * * * * * * * * * * * * * //

// points

1233
(
(0.938295781612396 0.0884054601192474 1.15694601845462e-05)
(0.938295900821686 0.0827042907476425 9.48933029576438e-06)
(0.938282191753387 0.0656008273363113 6.05158202233724e-05)
(0.938295781612396 1.15694701889879e-05 -0.0884054601192474)
(0.938295900821686 9.4893448476796e-06 -0.0827042907476425)
(0.938282191753387 6.05159002589062e-05 -0.0656008273363113)
(0.938295781612396 -0.0884054601192474 -1.15694601845462e-05)
(0.938295900821686 -0.0827042907476425 -9.48933029576438e-06)
(0.938282191753387 -0.0656008273363113 -6.05158202233724e-05)
(0.938286185264587 5.20865287398919e-05 0.0713020488619804)
(0.93829482793808 1.94707008631667e-05 0.0641756430268288)
(0.365469813346863 0.00651372503489256 -0.0700000002980232)
(0.38305738568306 0 -0.0700000002980232)
(0.382852703332901 -0.00201298505999148 -0.0700000002980232)
(0.382247000932693 -0.0039435587823391 -0.0700000002980232)
(0.381265014410019 -0.00571268191561103 -0.0700000002980232)
(0.37994709610939 -0.00724792806431651 -0.0700000002980232)
(0.378347009420395 -0.00848644319921732 -0.0700000002980232)
(0.37653049826622 -0.00937752146273851 -0.0700000002980232)
(0.374571710824966 -0.00988468341529369 -0.0700000002980232)
(0.372550904750824 -0.00998716522008181 -0.0700000002980232)
(0.370550900697708 -0.00968077126890421 -0.0700000002980232)
(0.368653506040573 -0.00897804461419582 -0.0700000002980232)
(0.366936296224594 -0.00790775660425425 -0.0700000002980232)
(0.365469813346863 -0.00651372503489256 -0.0700000002980232)
(0.364313900470734 -0.00485301995649934 -0.0700000002980232)
(0.363516002893448 -0.00299363094381988 -0.0700000002980232)
(0.363108694553375 -0.00101168302353472 -0.0700000002980232)
(0.363108694553375 0.00101168302353472 -0.0700000002980232)
(0.363516002893448 0.00299363094381988 -0.0700000002980232)
(0.364313900470734 0.00485301995649934 -0.0700000002980232)
(0.366936296224594 0.00790775660425425 -0.0700000002980232)
(0.368653506040573 0.00897804461419582 -0.0700000002980232)
(0.370550900697708 0.00968077126890421 -0.0700000002980232)
(0.372550904750824 0.00998716522008181 -0.0700000002980232)
(0.374571710824966 0.00988468341529369 -0.0700000002980232)
(0.37653049826622 0.00937752146273851 -0.0700000002980232)
(0.378347009420395 0.00848644319921732 -0.0700000002980232)
(0.37994709610939 0.00724792806431651 -0.0700000002980232)
(0.381265014410019 0.00571268191561103 -0.0700000002980232)
(0.382247000932693 0.0039435587823391 -0.0700000002980232)
(0.382852703332901 0.00201298505999148 -0.0700000002980232)
(0.364796191453934 -0.00563489086925983 -0.0578746013343334)
(0.382701694965363 -0.00264393305405974 -0.0584782510995865)
(0 0 1.73472295898892e-18)
(0.967996299266815 -0.0575348399579525 -0.0166651699692011)
(0.967996299266815 0.0560072809457779 -0.0212407596409321)
(0.967996299266815 -0.0560072809457779 -0.0212407596409321)
(0.967996299266815 0.0575348399579525 -0.0166651699692011)
(0.967996299266815 -0.0541164912283421 -0.0256785992532969)
(0.808783829212189 -0.000676878727972507 0.0598959699273109)
(0.967996299266815 0.058689258992672 -0.011981500312686)
(0.967996299266815 -0.0518747381865978 -0.0299498997628689)
(0.88441389799118 -4.98972815546523e-16 0.0598997883498669)
(0.967996299266815 0.0594630613923073 -0.0072201220318675)
(0.967996299266815 -0.0492965616285801 -0.034026961773634)
(0.884494721889496 -0.000142609802423976 0.0598996207118034)
(0.904933571815491 0.0598729103803635 -0.00179448898416013)
(0.854838788509369 -0.000676878727972507 0.0598959699273109)
(0.967996299266815 -0.0463986806571484 -0.037883348762989)
(0.89527428150177 0.0598814412951469 -0.00148269499186426)
(0.967996299266815 0.0598512105643749 -0.00241192104294896)
(0.916940808296204 0.0598725192248821 -0.00180741294752806)
(0.889364123344421 0.0598902814090252 -0.00106826901901513)
(0.967996299266815 -0.0431998781859875 -0.0414940491318703)
(0.926298022270203 0.0598800592124462 -0.00153726199641824)
(0.8859583735466 0.0598966218531132 -0.000616821111179888)
(0.967996299266815 -0.0397209115326405 -0.0448356382548809)
(0.884850203990936 0.059898879379034 -0.000330972601659596)
(0.884590625762939 0.0598994195461273 -0.000210886399145238)
(0.967996299266815 -0.0359843410551548 -0.047886461019516)
(0.967996299266815 0 0.0598997883498669)
(0.938295722007751 2.04922889679438e-06 0.0598997883498669)
(0.93828809261322 -3.58488000643539e-18 0.0598997883498669)
(0.896388292312622 -0.00153656303882599 0.059880081564188)
(0.967996299266815 -0.0320143885910511 -0.0506267100572586)
(0.933324813842773 -0.00106990896165371 0.0598902516067028)
(0.88441389799118 0.0598997883498669 4.3904600215189e-16)
(0.905736029148102 -0.00180710398126394 0.059872530400753)
(0.967996299266815 -0.0278368201106787 -0.0530386306345463)
(0.917729020118713 -0.00179508898872882 0.059872891753912)
(0.927399516105652 -0.00148413795977831 0.0598814003169537)
(0.967996299266815 -0.00481993099674582 0.0597055591642857)
(0.967996299266815 -0.0234787203371525 -0.0551065802574158)
(0.884494781494141 0.0598996207118034 0.000142653894727118)
(0.967996299266815 -0.00960860308259726 0.0591241084039211)
(0.967996299266815 -0.0189683493226767 -0.056817140430212)
(0.967996299266815 -0.0143349599093199 0.0581592097878456)
(0.967996299266815 -0.0143349599093199 -0.0581592097878456)
(0.967996299266815 -0.0189683493226767 0.056817140430212)
(0.967996299266815 -0.00960860308259726 -0.0591241084039211)
(0.967996299266815 -0.0234787203371525 0.0551065802574158)
(0.967996299266815 -0.00481993099674582 -0.0597055591642857)
(0.808783829212189 -0.000684745784383267 -0.0598958805203438)
(0.904933571815491 -0.00179448898416013 -0.0598729103803635)
(0.967996299266815 -0.0278368201106787 0.0530386306345463)
(0.89527428150177 -0.00148269499186426 -0.0598814412951469)
(0.916940808296204 -0.00180741294752806 -0.0598725192248821)
(0.967996299266815 -0.0320143885910511 0.0506267100572586)
(0.854838788509369 -0.000684745784383267 -0.0598958805203438)
(0.889364123344421 -0.00106826995033771 -0.0598902814090252)
(0.926298022270203 -0.00153726199641824 -0.0598800592124462)
(0.938005685806274 0.0598991885781288 0.000269936193944886)
(0.967996299266815 -0.0359843410551548 0.047886461019516)
(0.938102304935455 0.0598993897438049 -0.000220874804654159)
(0.936837375164032 0.0598967894911766 0.000599742110352963)
(0.967996299266815 -0.0397209115326405 0.0448356382548809)
(0.8859583735466 -0.000616821111179888 -0.0598966218531132)
(0.896416783332825 0.0598800517618656 0.00153786805458367)
(0.933342397212982 0.0598902814090252 0.00106829195283353)
(0.884850203990936 -0.000330972601659596 -0.059898879379034)
(0.808783829212189 0.000676878727972507 -0.0598959699273109)
(0.905780613422394 0.0598725117743015 0.00180775194894522)
(0.884590625762939 -0.000210886399145238 -0.0598994195461273)
(0.967996299266815 -0.0431998781859875 0.0414940491318703)
(0.967996299266815 0.0598512105643749 0.00241192104294896)
(0.917778491973877 0.0598729103803635 0.00179426197428256)
(0.927434802055359 0.0598814487457275 0.00148234504740685)
(0.967996299266815 -0.0463986806571484 0.037883348762989)
(0.967996299266815 0.0594630613923073 0.0072201220318675)
(0.88441389799118 3.78699298643435e-17 -0.0598997883498669)
(0.967996299266815 -0.0492965616285801 0.034026961773634)
(0.967996299266815 0.058689258992672 0.011981500312686)
(0.967996299266815 -0.0518747381865978 0.0299498997628689)
(0.967996299266815 0.0575348399579525 0.0166651699692011)
(0.884494781494141 0.000142653894727118 -0.0598996207118034)
(0.854838788509369 0.000676878727972507 -0.0598959699273109)
(0.967996299266815 -0.0541164912283421 0.0256785992532969)
(0.967996299266815 0.0560072809457779 0.0212407596409321)
(0.967996299266815 -0.0560072809457779 0.0212407596409321)
(0.967996299266815 0.0541164912283421 0.0256785992532969)
(0.967996299266815 0.0518747381865978 0.0299498997628689)
(0.967996299266815 -0.0575348399579525 0.0166651699692011)
(0.967996299266815 0.0492965616285801 0.034026961773634)
(0.967996299266815 -0.058689258992672 0.011981500312686)
(0.967996299266815 0.0463986806571484 0.037883348762989)
(0.967996299266815 -0.0594630613923073 0.0072201220318675)
(0.967996299266815 0.0431998781859875 0.0414940491318703)
(0.904933571815491 -0.0598729103803635 0.00179448898416013)
(0.89527428150177 -0.0598814412951469 0.00148269499186426)
(0.967996299266815 0.0397209115326405 0.0448356382548809)
(0.967996299266815 -0.0598512105643749 0.00241192104294896)
(0.916940808296204 -0.0598725192248821 0.00180741294752806)
(0.967996299266815 -9.90678022231156e-17 -0.0598997883498669)
(0.938005685806274 0.000269936310360208 -0.0598991885781288)
(0.889364123344421 -0.0598902814090252 0.00106826901901513)
(0.926298022270203 -0.0598800592124462 0.00153726199641824)
(0.938102304935455 -0.000220874804654159 -0.0598993897438049)
(0.967996299266815 0.0359843410551548 0.047886461019516)
(0.936837375164032 0.000599742110352963 -0.0598967894911766)
(0.8859583735466 -0.0598966218531132 0.000616821111179888)
(0.884850203990936 -0.059898879379034 0.000330972601659596)
(0.896416783332825 0.00153786805458367 -0.0598800517618656)
(0.967996299266815 0.0320143885910511 0.0506267100572586)
(0.884590625762939 -0.0598994195461273 0.000210886399145238)
(0.933342397212982 0.00106829195283353 -0.0598902814090252)
(0.905780613422394 0.00180775101762265 -0.0598725117743015)
(0.967996299266815 0.0278368201106787 0.0530386306345463)
(0.917778491973877 0.00179426197428256 -0.0598729103803635)
(0.927434802055359 0.00148234504740685 -0.0598814487457275)
(0.967996299266815 0.00481993099674582 -0.0597055591642857)
(0.88441389799118 -0.0598997883498669 -9.18087629523707e-17)
(0.967996299266815 0.0234787203371525 0.0551065802574158)
(0.967996299266815 0.00960860308259726 -0.0591241084039211)
(0.967996299266815 0.0189683493226767 0.056817140430212)
(0.967996299266815 0.0143349599093199 -0.0581592097878456)
(0.884494781494141 -0.0598996207118034 -0.000142653894727118)
(0.967996299266815 0.0143349599093199 0.0581592097878456)
(0.967996299266815 0.0189683493226767 -0.056817140430212)
(0.967996299266815 0.00960860308259726 0.0591241084039211)
(0.967996299266815 0.0234787203371525 -0.0551065802574158)
(0.967996299266815 0.00481993099674582 0.0597055591642857)
(0.808783829212189 0.000684745784383267 0.0598958805203438)
(0.967996299266815 0.0278368201106787 -0.0530386306345463)
(0.967996299266815 0.0320143885910511 -0.0506267100572586)
(0.854838788509369 0.000684745784383267 0.0598958805203438)
(0.967996299266815 0.0359843410551548 -0.047886461019516)
(0.938005685806274 -0.0598991885781288 -0.000269936193944886)
(0.967996299266815 0.0397209115326405 -0.0448356382548809)
(0.938102304935455 -0.0598993897438049 0.000220874804654159)
(0.936837375164032 -0.0598967894911766 -0.000599742110352963)
(0.896416783332825 -0.0598800517618656 -0.00153786805458367)
(0.967996299266815 0.0431998781859875 -0.0414940491318703)
(0.933342397212982 -0.0598902814090252 -0.00106829195283353)
(0.905780613422394 -0.0598725117743015 -0.00180775194894522)
(0.967996299266815 0.0463986806571484 -0.037883348762989)
(0.967996299266815 -0.0598512105643749 -0.00241192104294896)
(0.917778491973877 -0.0598729103803635 -0.00179426197428256)
(0.927434802055359 -0.0598814487457275 -0.00148234504740685)
(0.967996299266815 0.0492965616285801 -0.034026961773634)
(0.967996299266815 -0.0594630613923073 -0.0072201220318675)
(0.967996299266815 0.0518747381865978 -0.0299498997628689)
(0.967996299266815 -0.058689258992672 -0.011981500312686)
(0.967996299266815 0.0541164912283421 -0.0256785992532969)
(0.906786322593689 0.111210003495216 1.91771092351972e-18)
(0.906893491744995 0.111210003495216 0.000174775006598793)
(0.907028496265411 0.111210003495216 -0.000262113404460251)
(0.916733622550964 0.111210003495216 0.00139436696190387)
(0.928496599197388 0.111210003495216 -0.00138870801310986)
(0.93811571598053 0.111210003495216 -0.000226455798838288)
(0.93804407119751 0.111210003495216 0.000267338386038318)
(0.885184586048126 0.0598981902003288 0.000438579794717953)
(0.885919392108917 0.0598967000842094 0.000609190377872437)
(0.887407302856445 0.0598938092589378 0.000846780021674931)
(0.890404522418976 0.059888519346714 0.00116214901208878)
(0.936673879623413 0.0598964691162109 -0.000631475122645497)
(0.935201704502106 0.0598936192691326 -0.000859776104334742)
(0.932240784168243 0.059888418763876 -0.00116723496466875)
(0.906786322593689 -6.36788980357289e-17 -0.111210003495216)
(0.906893491744995 0.000174775006598793 -0.111210003495216)
(0.907028496265411 -0.000262113404460251 -0.111210003495216)
(0.916733622550964 0.00139436696190387 -0.111210003495216)
(0.928496599197388 -0.00138870801310986 -0.111210003495216)
(0.93811571598053 -0.000226455798838288 -0.111210003495216)
(0.93804407119751 0.000267338386038318 -0.111210003495216)
(0.885184586048126 0.000438579794717953 -0.0598981902003288)
(0.885919392108917 0.000609190377872437 -0.0598967000842094)
(0.887407302856445 0.000846780021674931 -0.0598938092589378)
(0.890404522418976 0.00116214901208878 -0.059888519346714)
(0.936673879623413 -0.000631475006230175 -0.0598964691162109)
(0.935201704502106 -0.000859776104334742 -0.0598936192691326)
(0.932240784168243 -0.00116723496466875 -0.059888418763876)
(0.906786322593689 -0.111210003495216 1.0201850105188e-16)
(0.906893491744995 -0.111210003495216 -0.000174775006598793)
(0.907028496265411 -0.111210003495216 0.000262113404460251)
(0.916733622550964 -0.111210003495216 -0.00139436696190387)
(0.928496599197388 -0.111210003495216 0.00138870801310986)
(0.93811571598053 -0.111210003495216 0.000226455798838288)
(0.93804407119751 -0.111210003495216 -0.000267338386038318)
(0.885184586048126 -0.0598981902003288 -0.000438579794717953)
(0.885919392108917 -0.0598967000842094 -0.000609190377872437)
(0.887407302856445 -0.0598938092589378 -0.000846780021674931)
(0.890404522418976 -0.059888519346714 -0.00116214901208878)
(0.936673879623413 -0.0598964691162109 0.000631475122645497)
(0.935201704502106 -0.0598936192691326 0.000859776104334742)
(0.932240784168243 -0.059888418763876 0.00116723496466875)
(0.906786322593689 2.53659500876367e-17 0.111210003495216)
(0.906893491744995 -0.000174775006598793 0.111210003495216)
(0.907028496265411 0.000262113404460251 0.111210003495216)
(0.916733622550964 -0.00139436696190387 0.111210003495216)
(0.928496599197388 0.00138870801310986 0.111210003495216)
(0.93811571598053 0.000226455798838288 0.111210003495216)
(0.93804407119751 -0.000267338386038318 0.111210003495216)
(0.936827480792999 0.000601642299443483 0.0598967708647251)
(0.936835706233978 0.000600002997089177 0.0598997883498669)
(0.885184407234192 -0.000438542803749442 0.0598981902003288)
(0.885916113853455 -0.000608543225098401 0.0598967000842094)
(0.887401223182678 -0.000845969479996711 0.0598938204348087)
(0.890389502048492 -0.00116086401976645 0.0598885491490364)
(0.936828374862671 -0.000601509411353618 0.0598967708647251)
(0.938011229038239 -0.000267471506958827 0.0598991997539997)
(0.935606122016907 0.000805091811344028 0.0598943904042244)
(0.933145880699158 0.00108696497045457 0.0598899386823177)
(0.928207874298096 0.00144139805343002 0.0598824508488178)
(0.919606685638428 0.00175883097108454 0.0598739683628082)
(0.890718281269073 0.00118813896551728 0.0598880089819431)
(0.93824702501297 0.000111306602775585 0.0598996914923191)
(0.886411011219025 0.000698790419846773 0.0598957203328609)
(0.884996771812439 0.000382086000172421 0.0598985813558102)
(0.884659290313721 0.000248362688580528 0.0598992817103863)
(0.808783829212189 -0.0197355505079031 0.0907212495803833)
(0.854838788509369 -0.0234486404806376 0.0934643372893333)
(0.808783829212189 -0.0234486404806376 0.0934643372893333)
(0.854838788509369 -0.027380270883441 0.095883809030056)
(0.808783829212189 -0.027380270883441 0.095883809030056)
(0.808783829212189 -0.00185295299161226 0.0643600970506668)
(0.854838788509369 -0.00185295299161226 0.0643600970506668)
(0.854838788509369 -0.0315023213624954 0.0979623422026634)
(0.808783829212189 -0.0315023213624954 0.0979623422026634)
(0.808783829212189 -0.00340210599824786 0.0687088593840599)
(0.854838788509369 -0.00340210599824786 0.0687088593840599)
(0.808783829212189 -0.0357852913439274 0.0996850579977036)
(0.854838788509369 -0.0357852913439274 0.0996850579977036)
(0.808783829212189 -0.00531325116753578 0.0729111284017563)
(0.854838788509369 -0.00531325116753578 0.0729111284017563)
(0.808783829212189 -0.0401985310018063 0.101039603352547)
(0.854838788509369 -0.0401985310018063 0.101039603352547)
(0.808783829212189 -0.00757271517068148 0.076936848461628)
(0.854838788509369 -0.00757271517068148 0.076936848461628)
(0.808783829212189 -0.0447104685008526 0.102016396820545)
(0.854838788509369 -0.0447104685008526 0.102016396820545)
(0.808783829212189 -0.049288809299469 0.102608300745487)
(0.854838788509369 -0.049288809299469 0.102608300745487)
(0.854838788509369 -0.0101643297821283 0.0807572081685066)
(0.808783829212189 -0.0101643297821283 0.0807572081685066)
(0.854838788509369 -0.013069549575448 0.0843448713421822)
(0.808783829212189 -0.013069549575448 0.0843448713421822)
(0.854838788509369 -0.0162675809115171 0.0876741483807564)
(0.808783829212189 -0.0162675809115171 0.0876741483807564)
(0.854838788509369 -0.0197355505079031 0.0907212495803833)
(0.808783829212189 -0.049288809299469 0.103749796748161)
(0.854838788509369 -0.049288809299469 0.103749796748161)
(0.808783829212189 -0.0186777804046869 0.0918436422944069)
(0.854838788509369 -0.0225193593651056 0.0946619063615799)
(0.808783829212189 -0.0225193593651056 0.0946619063615799)
(0.854838788509369 -0.0265921093523502 0.0971343666315079)
(0.808783829212189 -0.0265921093523502 0.0971343666315079)
(0.854838788509369 -0.000444131495896727 0.0645247027277946)
(0.808783829212189 -0.000444131495896727 0.0645247027277946)
(0.854838788509369 -0.0308649800717831 0.0992421805858612)
(0.808783829212189 -0.0308649800717831 0.0992421805858612)
(0.854838788509369 -0.00197243294678628 0.0690374225378036)
(0.808783829212189 -0.00197243294678628 0.0690374225378036)
(0.854838788509369 -0.0353054217994213 0.100969299674034)
(0.808783829212189 -0.0353054217994213 0.100969299674034)
(0.854838788509369 -0.0038885110989213 0.0733996406197548)
(0.808783829212189 -0.0038885110989213 0.0733996406197548)
(0.854838788509369 -0.039879571646452 0.102302499115467)
(0.808783829212189 -0.039879571646452 0.102302499115467)
(0.854838788509369 -0.00617776112630963 0.0775781199336052)
(0.808783829212189 -0.00617776112630963 0.0775781199336052)
(0.854838788509369 -0.044552568346262 0.103231698274612)
(0.808783829212189 -0.044552568346262 0.103231698274612)
(0.854838788509369 -0.00882273353636265 0.0815410017967224)
(0.808783829212189 -0.00882273353636265 0.0815410017967224)
(0.854838788509369 -0.0118032703176141 0.0852580890059471)
(0.808783829212189 -0.0118032703176141 0.0852580890059471)
(0.854838788509369 -0.0150966504588723 0.0887010470032692)
(0.808783829212189 -0.0150966504588723 0.0887010470032692)
(0.854838788509369 -0.0186777804046869 0.0918436422944069)
(0.808783829212189 0.0197355505079031 -0.0907212495803833)
(0.854838788509369 0.0234486404806376 -0.0934643372893333)
(0.808783829212189 0.0234486404806376 -0.0934643372893333)
(0.854838788509369 0.027380270883441 -0.095883809030056)
(0.808783829212189 0.027380270883441 -0.095883809030056)
(0.808783829212189 0.00185295299161226 -0.0643600970506668)
(0.854838788509369 0.00185295299161226 -0.0643600970506668)
(0.854838788509369 0.0315023213624954 -0.0979623422026634)
(0.808783829212189 0.0315023213624954 -0.0979623422026634)
(0.808783829212189 0.00340210599824786 -0.0687088593840599)
(0.854838788509369 0.00340210599824786 -0.0687088593840599)
(0.808783829212189 0.0357852913439274 -0.0996850579977036)
(0.854838788509369 0.0357852913439274 -0.0996850579977036)
(0.808783829212189 0.00531325116753578 -0.0729111284017563)
(0.854838788509369 0.00531325116753578 -0.0729111284017563)
(0.808783829212189 0.0401985310018063 -0.101039603352547)
(0.854838788509369 0.0401985310018063 -0.101039603352547)
(0.808783829212189 0.00757271517068148 -0.076936848461628)
(0.854838788509369 0.00757271517068148 -0.076936848461628)
(0.808783829212189 0.0447104685008526 -0.102016396820545)
(0.854838788509369 0.0447104685008526 -0.102016396820545)
(0.808783829212189 0.049288809299469 -0.102608300745487)
(0.854838788509369 0.049288809299469 -0.102608300745487)
(0.854838788509369 0.0101643297821283 -0.0807572081685066)
(0.808783829212189 0.0101643297821283 -0.0807572081685066)
(0.854838788509369 0.013069549575448 -0.0843448713421822)
(0.808783829212189 0.013069549575448 -0.0843448713421822)
(0.854838788509369 0.0162675809115171 -0.0876741483807564)
(0.808783829212189 0.0162675809115171 -0.0876741483807564)
(0.854838788509369 0.0197355505079031 -0.0907212495803833)
(0.808783829212189 0.049288809299469 -0.103749796748161)
(0.854838788509369 0.049288809299469 -0.103749796748161)
(0.808783829212189 0.0186777804046869 -0.0918436422944069)
(0.854838788509369 0.0225193593651056 -0.0946619063615799)
(0.808783829212189 0.0225193593651056 -0.0946619063615799)
(0.854838788509369 0.0265921093523502 -0.0971343666315079)
(0.808783829212189 0.0265921093523502 -0.0971343666315079)
(0.854838788509369 0.000444131495896727 -0.0645247027277946)
(0.808783829212189 0.000444131495896727 -0.0645247027277946)
(0.854838788509369 0.0308649800717831 -0.0992421805858612)
(0.808783829212189 0.0308649800717831 -0.0992421805858612)
(0.854838788509369 0.00197243294678628 -0.0690374225378036)
(0.808783829212189 0.00197243294678628 -0.0690374225378036)
(0.854838788509369 0.0353054217994213 -0.100969299674034)
(0.808783829212189 0.0353054217994213 -0.100969299674034)
(0.854838788509369 0.0038885110989213 -0.0733996406197548)
(0.808783829212189 0.0038885110989213 -0.0733996406197548)
(0.854838788509369 0.039879571646452 -0.102302499115467)
(0.808783829212189 0.039879571646452 -0.102302499115467)
(0.854838788509369 0.00617776112630963 -0.0775781199336052)
(0.808783829212189 0.00617776112630963 -0.0775781199336052)
(0.854838788509369 0.044552568346262 -0.103231698274612)
(0.808783829212189 0.044552568346262 -0.103231698274612)
(0.854838788509369 0.00882273353636265 -0.0815410017967224)
(0.808783829212189 0.00882273353636265 -0.0815410017967224)
(0.854838788509369 0.0118032703176141 -0.0852580890059471)
(0.808783829212189 0.0118032703176141 -0.0852580890059471)
(0.854838788509369 0.0150966504588723 -0.0887010470032692)
(0.808783829212189 0.0150966504588723 -0.0887010470032692)
(0.854838788509369 0.0186777804046869 -0.0918436422944069)
(1.12793004518608e-05 5.86206697335001e-05 -9.7802680102177e-05)
(0.363609999418259 -0.00327812810428441 -0.0580299310386181)
(0.364125400781631 -0.00449671410024166 -0.0579595007002354)
(0.363330185413361 0.00231990194879472 -0.0580700486898422)
(0.363064795732498 0.000385809107683599 -0.0581093095242977)
(0.363152414560318 -0.00137533398810774 -0.0580962188541889)
(0.365997195243835 0.00708187883719802 -0.0577417500317097)
(0.364849209785461 0.00571176316589117 -0.0578682199120522)
(0.363895207643509 0.00400677183642983 -0.0579904094338417)
(0.37090140581131 0.00976481381803751 -0.0574573017656803)
(0.369054585695267 0.0091639282181859 -0.0575154908001423)
(0.367500692605972 0.00831400696188211 -0.057610310614109)
(0.376305401325226 0.00945791136473417 -0.0576278194785118)
(0.374597191810608 0.00988064520061016 -0.057519119232893)
(0.372647285461426 0.00999162625521421 -0.0574568696320057)
(0.383015990257263 -0.000909957801923156 -0.0585377514362335)
(0.383003890514374 0.00103321694768965 -0.0585354417562485)
(0.382615208625793 0.00294130994006991 -0.0584621615707874)
(0.379534691572189 0.00761870807036757 -0.0579705610871315)
(0.377927511930466 0.00873398128896952 -0.0577776618301868)
(0.381859511137009 0.00474589876830578 -0.0583268888294697)
(0.380779594182968 0.0063537759706378 -0.0581500604748726)
(0.967996299266815 -0.056817140430212 -0.0189683493226767)
(0.967996299266815 0.0551065802574158 -0.0234787203371525)
(0.967996299266815 0.056817140430212 -0.0189683493226767)
(0.808783829212189 -0.000225630501518026 0.0598993711173534)
(0.808783829212189 1.46712194513753e-17 0.0598997883498669)
(0.967996299266815 -0.0551065802574158 -0.0234787203371525)
(0.808783829212189 -0.000451257801614702 0.0598980896174908)
(0.967996299266815 0.0581592097878456 -0.0143349599093199)
(0.967996299266815 -0.0530386306345463 -0.0278368201106787)
(0.967996299266815 0.0591241084039211 -0.00960860308259726)
(0.967996299266815 -0.0506267100572586 -0.0320143885910511)
(0.967996299266815 0.0597055591642857 -0.00481993099674582)
(0.967996299266815 -0.047886461019516 -0.0359843410551548)
(0.854838788509369 -0.000225630501518026 0.0598993711173534)
(0.854838788509369 -0.000451257801614702 0.0598980896174908)
(0.854838788509369 1.46712194513753e-17 0.0598997883498669)
(0.967996299266815 -0.0448356382548809 -0.0397209115326405)
(0.967996299266815 -0.0414940491318703 -0.0431998781859875)
(0.967996299266815 -0.037883348762989 -0.0463986806571484)
(0.938135027885437 -0.000201196206035092 0.0598994605243206)
(0.937874794006348 -0.000325042492477223 0.0598989091813564)
(0.938237428665161 -0.00012151100236224 0.0598996691405773)
(0.938273310661316 -7.60381735744886e-05 0.0598997510969639)
(0.938288390636444 -4.43478784291074e-05 0.0598997808992863)
(0.938294887542725 -1.6491689166287e-05 0.0598997883498669)
(0.93675822019577 -0.00061529001686722 0.0598966293036938)
(0.967996299266815 -0.034026961773634 -0.0492965616285801)
(0.967996299266815 -0.0299498997628689 -0.0518747381865978)
(0.967996299266815 -0.00241192104294896 0.0598512105643749)
(0.967996299266815 -0.0256785992532969 -0.0541164912283421)
(0.967996299266815 -0.0072201220318675 0.0594630613923073)
(0.967996299266815 -0.0212407596409321 -0.0560072809457779)
(0.967996299266815 -0.011981500312686 0.058689258992672)
(0.967996299266815 -0.0166651699692011 -0.0575348399579525)
(0.967996299266815 -0.0166651699692011 0.0575348399579525)
(0.967996299266815 -0.011981500312686 -0.058689258992672)
(0.967996299266815 -0.0072201220318675 -0.0594630613923073)
(0.967996299266815 -0.0212407596409321 0.0560072809457779)
(0.967996299266815 -0.0256785992532969 0.0541164912283421)
(0.967996299266815 -0.00241192104294896 -0.0598512105643749)
(0.967996299266815 -0.0299498997628689 0.0518747381865978)
(0.967996299266815 -0.034026961773634 0.0492965616285801)
(0.967996299266815 0.0598997883498669 4.58785304276819e-17)
(0.967996299266815 -0.037883348762989 0.0463986806571484)
(0.967996299266815 -0.0414940491318703 0.0431998781859875)
(0.967996299266815 -0.0448356382548809 0.0397209115326405)
(0.967996299266815 0.0597055591642857 0.00481993099674582)
(0.967996299266815 -0.047886461019516 0.0359843410551548)
(0.967996299266815 0.0591241084039211 0.00960860308259726)
(0.967996299266815 -0.0506267100572586 0.0320143885910511)
(0.967996299266815 0.0581592097878456 0.0143349599093199)
(0.967996299266815 -0.0530386306345463 0.0278368201106787)
(0.967996299266815 0.056817140430212 0.0189683493226767)
(0.967996299266815 -0.0551065802574158 0.0234787203371525)
(0.967996299266815 0.0551065802574158 0.0234787203371525)
(0.967996299266815 0.0530386306345463 0.0278368201106787)
(0.967996299266815 -0.056817140430212 0.0189683493226767)
(0.967996299266815 0.0506267100572586 0.0320143885910511)
(0.967996299266815 -0.0581592097878456 0.0143349599093199)
(0.967996299266815 0.047886461019516 0.0359843410551548)
(0.967996299266815 -0.0591241084039211 0.00960860308259726)
(0.967996299266815 0.0448356382548809 0.0397209115326405)
(0.967996299266815 -0.0597055591642857 0.00481993099674582)
(0.967996299266815 0.0414940491318703 0.0431998781859875)
(0.967996299266815 0.037883348762989 0.0463986806571484)
(0.967996299266815 0.034026961773634 0.0492965616285801)
(0.967996299266815 0.0299498997628689 0.0518747381865978)
(0.967996299266815 0.00241192104294896 -0.0598512105643749)
(0.967996299266815 0.0256785992532969 0.0541164912283421)
(0.967996299266815 0.0072201220318675 -0.0594630613923073)
(0.967996299266815 0.0212407596409321 0.0560072809457779)
(0.967996299266815 0.011981500312686 -0.058689258992672)
(0.967996299266815 0.0166651699692011 0.0575348399579525)
(0.967996299266815 0.0166651699692011 -0.0575348399579525)
(0.967996299266815 0.011981500312686 0.058689258992672)
(0.967996299266815 0.0212407596409321 -0.0560072809457779)
(0.967996299266815 0.0072201220318675 0.0594630613923073)
(0.967996299266815 0.0256785992532969 -0.0541164912283421)
(0.903502881526947 0.0017676199786365 0.0598737113177776)
(0.914454221725464 0.0018354170024395 0.0598716698586941)
(0.808783829212189 0.000456502690212801 0.0598980486392975)
(0.967996299266815 0.00241192104294896 0.0598512105643749)
(0.967996299266815 0.0299498997628689 -0.0518747381865978)
(0.894122123718262 0.00142054795287549 0.0598829500377178)
(0.808783829212189 0.000228253004024737 0.0598993599414825)
(0.924592077732086 0.00160912901628762 0.0598781816661358)
(0.967996299266815 0.034026961773634 -0.0492965616285801)
(0.88850861787796 0.000979863107204437 0.0598917901515961)
(0.967996299266815 0.037883348762989 -0.0463986806571484)