/*--------------------------------*- C++ -*----------------------------------*\
| =========                 |                                                 |
| \\      /  F ield         | OpenFOAM: The Open Source CFD Toolbox           |
|  \\    /   O peration     | Version:  4.1                                   |
|   \\  /    A nd           | Web:      www.OpenFOAM.org                      |
|    \\/     M anipulation  |                                                 |
\*---------------------------------------------------------------------------*/
FoamFile
{
    version     2.0;
    format      ascii;
    class       polyBoundaryMesh;
    location    "constant/polyMesh";
    object      boundary;
}
// * * * * * * * * * * * * * * * * * * * * * * * * * * * * * * * * * * * * * //

6
(
    topAndBottom
    {
        type            patch;
        nFaces          3200;
        startFace       684559;
    }
    inlet
    {
        type            patch;
        nFaces          1600;
        startFace       687759;
    }
    outlet
    {
        type            patch;
        nFaces          1600;
        startFace       689359;
    }
    frontAndBack
    {
        type            patch;
        nFaces          3200;
        startFace       690959;
    }
    nozzle
    {
        type            wall;
        inGroups        1(wall);
        nFaces          278;
        startFace       694159;
    }
    kobra
    {
        type            wall;
        inGroups        1(wall);
        nFaces          27936;
        startFace       694437;
    }
)

// ************************************************************************* //
